@<TRIPOS>MOLECULE
1W9
   34    32     1     0     0
SMALL
bcc


@<TRIPOS>ATOM
      1 C        -224.5410 -180.6140  247.9270 c2        1 1W9      0.399000
      2 N        -222.4460 -181.9520  247.4420 n7        1 1W9      0.091000
      3 O        -225.3490 -181.4160  247.3680 o         1 1W9     -0.619500
      4 P        1053.0940  844.7490-1166.7730 p3        1 1W9      2.389000
      5 N1       -220.7010 -186.4400  245.5460 n2        1 1W9     -0.090000
      6 C2       -220.2860 -185.7680  246.6660 c2        1 1W9     -0.368000
      7 C3       -221.0360 -184.6550  247.1520 c2        1 1W9      0.120000
      8 O3       -220.5270 -184.0190  248.2820 oh        1 1W9     -0.313000
      9 C4       -222.1900 -184.2070  246.5380 c2        1 1W9     -0.310000
     10 C5       -222.7120 -184.9520  245.3590 c3        1 1W9     -0.005000
     11 C6       -221.8070 -186.0670  244.9540 c2        1 1W9     -0.307000
     12 CA       -223.0620 -180.8270  247.8860 c2        1 1W9     -0.494000
     13 CB       -222.2290 -179.6870  248.3710 c3        1 1W9      0.102000
     14 OG       -222.4590 -179.3610  249.7340 oh        1 1W9     -0.407000
     15 O1P      1051.9760  845.1750-1167.6330 o         1 1W9     -1.130333
     16 O2P      1053.8180  843.4970-1167.0570 o         1 1W9     -1.130333
     17 O3P      1053.5250  845.6080-1165.6500 o         1 1W9     -1.130333
     18 C4A      -222.9790 -183.0700  246.9560 c2        1 1W9     -0.205000
     19 C5A      1052.0120  844.7080-1163.4520 c1        1 1W9      0.201000
     20 OXT      -224.9600 -179.5830  248.5570 o         1 1W9     -0.619500
     21 H1       -221.2860 -183.8330  248.8520 ho        1 1W9      0.199000
     22 H2       -222.1040 -186.6360  244.0590 h4        1 1W9      0.083000
     23 H3       -221.4420 -181.9510  247.5370 hn        1 1W9      0.190000
     24 H4       -221.1200 -179.8790  248.3150 h1        1 1W9      0.031500
     25 H5       -222.4650 -178.7750  247.7510 h1        1 1W9      0.031500
     26 H6       -223.4230 -179.3780  249.8570 ho        1 1W9      0.245000
     27 H8       -218.1310 -185.8290  246.7900 hc        1 1W9      0.026000
     28 H9       -218.9990 -185.7520  248.3760 hc        1 1W9      0.026000
     29 H10      -218.9600 -187.2980  247.4300 hc        1 1W9      0.026000
     30 H12      -224.0760 -183.0770  246.8030 h4        1 1W9      0.196000
     31 H13      -222.8530 -184.2460  244.4900 hc        1 1W9      0.019500
     32 H14      -223.7400 -185.3590  245.5840 hc        1 1W9      0.019500
     33 C2A      -219.0380 -186.1840  247.3450 c3        1 1W9     -0.068000
     34 O4P      1051.9690  844.2840-1164.5430 o         1 1W9     -0.200000
@<TRIPOS>BOND
     1    1    3 1   
     2    1   12 1   
     3    1   20 1   
     4    2   12 1   
     5    2   18 1   
     6    2   23 1   
     7    4   15 1   
     8    4   16 1   
     9    4   17 1   
    10    5    6 1   
    11    5   11 1   
    12    6    7 1   
    13    6   33 1   
    14    7    8 1   
    15    7    9 1   
    16    8   21 1   
    17    9   10 1   
    18    9   18 1   
    19   10   11 1   
    20   10   31 1   
    21   10   32 1   
    22   11   22 1   
    23   12   13 1   
    24   13   14 1   
    25   13   24 1   
    26   13   25 1   
    27   14   26 1   
    28   18   30 1   
    29   19   34 1   
    30   27   33 1   
    31   28   33 1   
    32   29   33 1   
@<TRIPOS>SUBSTRUCTURE
     1 1W9         1 TEMP              0 ****  ****    0 ROOT
