@<TRIPOS>MOLECULE
08Z
   38    40     1     0     0
SMALL
bcc


@<TRIPOS>ATOM
      1 C1         -0.0480   -0.4680    0.0620 ca        1 08Z      0.273600
      2 N2         -0.7580   -0.7200   -1.0960 nu        1 08Z     -0.696300
      3 C3         -2.0630   -1.2410   -1.1260 cc        1 08Z      0.593300
      4 N4         -2.5860   -2.0620   -0.1910 nd        1 08Z     -0.728000
      5 C5         -3.9130   -2.3780   -0.5510 cd        1 08Z      0.696200
      6 C6         -4.3280   -1.7920   -1.7820 cc        1 08Z     -0.407000
      7 S7         -3.1150   -0.8280   -2.4200 ss        1 08Z      0.020700
      8 N8         -4.7100   -3.1370    0.2590 nv        1 08Z     -0.922500
      9 C9         -5.5990   -2.0430   -2.4360 c         1 08Z      0.645300
     10 C10        -5.8320   -1.3620   -3.7270 ca        1 08Z     -0.290900
     11 C11        -5.4420   -0.0390   -3.9720 ca        1 08Z     -0.077000
     12 C12        -5.7100    0.5240   -5.2190 ca        1 08Z     -0.250300
     13 C13        -6.3670   -0.2620   -6.1850 ca        1 08Z      0.425200
     14 N14        -6.7600   -1.5320   -5.9650 nb        1 08Z     -0.656000
     15 C15        -6.5030   -2.0620   -4.7570 ca        1 08Z      0.453200
     16 O16        -6.4450   -2.8210   -1.9660 o         1 08Z     -0.552100
     17 C17         1.3730   -0.3720    0.0010 ca        1 08Z     -0.189000
     18 C18         2.1080   -0.0460    1.1220 ca        1 08Z     -0.015500
     19 C19         1.4720    0.1990    2.3600 ca        1 08Z     -0.276600
     20 C20         0.0670    0.1190    2.4260 ca        1 08Z     -0.015500
     21 C21        -0.6800   -0.2030    1.3130 ca        1 08Z     -0.189000
     22 C22         2.3290    0.5170    3.4750 c         1 08Z      0.584700
     23 O23         3.5450    0.6600    3.5280 o         1 08Z     -0.443100
     24 N24         1.6550    0.7090    4.8340 nz        1 08Z     -0.764400
     25 HN2        -0.2190   -0.9180   -1.9170 hn        1 08Z      0.460800
     26 HN8        -5.5860   -3.4340   -0.1150 hn        1 08Z      0.456800
     27 HN8A       -4.2980   -3.6720    0.9850 hn        1 08Z      0.456800
     28 H11        -4.9600    0.5650   -3.1850 ha        1 08Z      0.140000
     29 H12        -5.4280    1.5610   -5.4450 ha        1 08Z      0.153000
     30 H13        -6.5980    0.1460   -7.1870 h4        1 08Z      0.036100
     31 H15        -6.8520   -3.0990   -4.5880 h4        1 08Z      0.047100
     32 H17         1.9020   -0.5630   -0.9480 ha        1 08Z      0.174000
     33 H18         3.2100    0.0190    1.0580 ha        1 08Z      0.146000
     34 H20        -0.4760    0.3160    3.3640 ha        1 08Z      0.146000
     35 H21        -1.7790   -0.2480    1.4020 ha        1 08Z      0.174000
     36 HN24        1.0040    1.4950    4.7900 hn        1 08Z      0.463133
     37 HN2A        2.3700    0.8990    5.5460 hn        1 08Z      0.463133
     38 H243        1.1410   -0.1380    5.0870 hn        1 08Z      0.463133
@<TRIPOS>BOND
     1    1    2 1   
     2    1   17 ar  
     3    1   21 ar  
     4    2    3 1   
     5    2   25 1   
     6    3    4 2   
     7    3    7 1   
     8    4    5 1   
     9    5    6 2   
    10    5    8 1   
    11    6    7 1   
    12    6    9 1   
    13    8   26 1   
    14    8   27 1   
    15    9   10 1   
    16    9   16 2   
    17   10   11 ar  
    18   10   15 ar  
    19   11   12 ar  
    20   11   28 1   
    21   12   13 ar  
    22   12   29 1   
    23   13   14 ar  
    24   13   30 1   
    25   14   15 ar  
    26   15   31 1   
    27   17   18 ar  
    28   17   32 1   
    29   18   19 ar  
    30   18   33 1   
    31   19   20 ar  
    32   19   22 1   
    33   20   21 ar  
    34   20   34 1   
    35   21   35 1   
    36   22   23 2   
    37   22   24 1   
    38   24   36 1   
    39   24   37 1   
    40   24   38 1   
@<TRIPOS>SUBSTRUCTURE
     1 08Z         1 TEMP              0 ****  ****    0 ROOT
